6439397
  -OEChem-05302305053D

 57 57  0     0  0  0  0  0  0999 V2000
    0.0305    4.2483    1.2303 O   0  0  0  0  0  0  0  0  0  0  0  0
   -0.4559    4.0382   -0.9780 O   0  0  0  0  0  0  0  0  0  0  0  0
    5.2123   -1.0538   -1.7605 O   0  0  0  0  0  0  0  0  0  0  0  0
    4.7241   -2.8910    0.2741 O   0  0  0  0  0  0  0  0  0  0  0  0
    3.7028    1.2300   -1.7936 O   0  0  0  0  0  0  0  0  0  0  0  0
    2.7920   -2.2947    2.0846 O   0  0  0  0  0  0  0  0  0  0  0  0
   -4.3719    0.4109   -0.2232 C   0  0  0  0  0  0  0  0  0  0  0  0
   -5.3886   -0.7049    0.0420 C   0  0  0  0  0  0  0  0  0  0  0  0
   -2.9928    0.2177    0.4152 C   0  0  0  0  0  0  0  0  0  0  0  0
   -6.7889   -0.4827   -0.5379 C   0  0  0  0  0  0  0  0  0  0  0  0
   -2.0045    1.3370    0.0730 C   0  0  0  0  0  0  0  0  0  0  0  0
   -7.7801   -1.5900   -0.1748 C   0  0  0  0  0  0  0  0  0  0  0  0
   -0.6020    1.0957    0.6498 C   0  0  0  0  0  0  0  0  0  0  0  0
   -9.1604   -1.3141   -0.7724 C   0  0  0  0  0  0  0  0  0  0  0  0
    0.4073    2.1504    0.2558 C   0  0  0  0  0  0  0  0  0  0  0  0
  -10.1593   -2.3943   -0.3892 C   0  0  0  0  0  0  0  0  0  0  0  0
    1.7219    1.9533    0.0420 C   0  0  0  0  0  0  0  0  0  0  0  0
    2.4393    0.7134    0.1653 C   0  0  0  0  0  0  0  0  0  0  0  0
   -0.0530    3.5568    0.0700 C   0  0  0  0  0  0  0  0  0  0  0  0
    2.2183   -0.1817    1.1492 C   0  0  0  0  0  0  0  0  0  0  0  0
    3.4791    0.4400   -0.8790 C   0  0  0  0  0  0  0  0  0  0  0  0
    2.9943   -1.4601    1.2056 C   0  0  0  0  0  0  0  0  0  0  0  0
    4.2501   -0.8192   -0.7978 C   0  0  0  0  0  0  0  0  0  0  0  0
    4.0235   -1.7056    0.1742 C   0  0  0  0  0  0  0  0  0  0  0  0
    1.2235   -0.0404    2.2742 C   0  0  0  0  0  0  0  0  0  0  0  0
    6.4645   -0.5398   -1.3523 C   0  0  0  0  0  0  0  0  0  0  0  0
    4.0740   -3.9196   -0.4462 C   0  0  0  0  0  0  0  0  0  0  0  0
   -4.7921    1.3598    0.1336 H   0  0  0  0  0  0  0  0  0  0  0  0
   -4.2496    0.5162   -1.3086 H   0  0  0  0  0  0  0  0  0  0  0  0
   -4.9874   -1.6471   -0.3520 H   0  0  0  0  0  0  0  0  0  0  0  0
   -5.4776   -0.8378    1.1278 H   0  0  0  0  0  0  0  0  0  0  0  0
   -3.1051    0.1518    1.5042 H   0  0  0  0  0  0  0  0  0  0  0  0
   -2.5809   -0.7423    0.0806 H   0  0  0  0  0  0  0  0  0  0  0  0
   -6.7131   -0.4023   -1.6292 H   0  0  0  0  0  0  0  0  0  0  0  0
   -7.1740    0.4787   -0.1760 H   0  0  0  0  0  0  0  0  0  0  0  0
   -2.4100    2.2856    0.4468 H   0  0  0  0  0  0  0  0  0  0  0  0
   -1.9358    1.4285   -1.0187 H   0  0  0  0  0  0  0  0  0  0  0  0
   -7.4045   -2.5533   -0.5403 H   0  0  0  0  0  0  0  0  0  0  0  0
   -7.8590   -1.6662    0.9164 H   0  0  0  0  0  0  0  0  0  0  0  0
   -0.3031    0.1070    0.2918 H   0  0  0  0  0  0  0  0  0  0  0  0
   -0.7720    1.1249    1.7282 H   0  0  0  0  0  0  0  0  0  0  0  0
   -9.5308   -0.3434   -0.4227 H   0  0  0  0  0  0  0  0  0  0  0  0
   -9.0890   -1.2599   -1.8649 H   0  0  0  0  0  0  0  0  0  0  0  0
  -11.1384   -2.1779   -0.8277 H   0  0  0  0  0  0  0  0  0  0  0  0
  -10.2787   -2.4505    0.6976 H   0  0  0  0  0  0  0  0  0  0  0  0
   -9.8342   -3.3750   -0.7507 H   0  0  0  0  0  0  0  0  0  0  0  0
    2.3336    2.8060   -0.2522 H   0  0  0  0  0  0  0  0  0  0  0  0
    1.0216    0.9953    2.5537 H   0  0  0  0  0  0  0  0  0  0  0  0
    1.6919   -0.4167    3.1959 H   0  0  0  0  0  0  0  0  0  0  0  0
    0.3399   -0.6699    2.1464 H   0  0  0  0  0  0  0  0  0  0  0  0
   -0.2698    5.1765    1.1270 H   0  0  0  0  0  0  0  0  0  0  0  0
    6.4193    0.5426   -1.1883 H   0  0  0  0  0  0  0  0  0  0  0  0
    7.1867   -0.7279   -2.1526 H   0  0  0  0  0  0  0  0  0  0  0  0
    6.8281   -1.0407   -0.4483 H   0  0  0  0  0  0  0  0  0  0  0  0
    3.0647   -4.1039   -0.0620 H   0  0  0  0  0  0  0  0  0  0  0  0
    4.0311   -3.6922   -1.5171 H   0  0  0  0  0  0  0  0  0  0  0  0
    4.6529   -4.8397   -0.3224 H   0  0  0  0  0  0  0  0  0  0  0  0
  1 19  1  0  0  0  0
  1 51  1  0  0  0  0
  2 19  2  0  0  0  0
  3 23  1  0  0  0  0
  3 26  1  0  0  0  0
  4 24  1  0  0  0  0
  4 27  1  0  0  0  0
  5 21  2  0  0  0  0
  6 22  2  0  0  0  0
  7  8  1  0  0  0  0
  7  9  1  0  0  0  0
  7 28  1  0  0  0  0
  7 29  1  0  0  0  0
  8 10  1  0  0  0  0
  8 30  1  0  0  0  0
  8 31  1  0  0  0  0
  9 11  1  0  0  0  0
  9 32  1  0  0  0  0
  9 33  1  0  0  0  0
 10 12  1  0  0  0  0
 10 34  1  0  0  0  0
 10 35  1  0  0  0  0
 11 13  1  0  0  0  0
 11 36  1  0  0  0  0
 11 37  1  0  0  0  0
 12 14  1  0  0  0  0
 12 38  1  0  0  0  0
 12 39  1  0  0  0  0
 13 15  1  0  0  0  0
 13 40  1  0  0  0  0
 13 41  1  0  0  0  0
 14 16  1  0  0  0  0
 14 42  1  0  0  0  0
 14 43  1  0  0  0  0
 15 17  2  0  0  0  0
 15 19  1  0  0  0  0
 16 44  1  0  0  0  0
 16 45  1  0  0  0  0
 16 46  1  0  0  0  0
 17 18  1  0  0  0  0
 17 47  1  0  0  0  0
 18 20  2  0  0  0  0
 18 21  1  0  0  0  0
 20 22  1  0  0  0  0
 20 25  1  0  0  0  0
 21 23  1  0  0  0  0
 22 24  1  0  0  0  0
 23 24  2  0  0  0  0
 25 48  1  0  0  0  0
 25 49  1  0  0  0  0
 25 50  1  0  0  0  0
 26 52  1  0  0  0  0
 26 53  1  0  0  0  0
 26 54  1  0  0  0  0
 27 55  1  0  0  0  0
 27 56  1  0  0  0  0
 27 57  1  0  0  0  0
M  END
> <PUBCHEM_COMPOUND_CID>
6439397

> <PUBCHEM_CONFORMER_RMSD>
1

> <PUBCHEM_CONFORMER_DIVERSEORDER>
1
41
34
28
38
55
4
27
40
8
47
12
43
29
32
11
35
6
15
49
33
46
16
51
44
26
50
54
30
42
52
37
13
21
36
31
24
7
10
14
25
56
39
18
45
48
20
9
53
2
5
22
17
3
19
23

> <PUBCHEM_MMFF94_PARTIAL_CHARGES>
21
1 -0.65
13 0.14
15 -0.12
17 -0.15
18 0.01
19 0.71
2 -0.57
20 -0.12
21 0.54
22 0.54
23 0.09
24 0.09
25 0.14
26 0.28
27 0.28
3 -0.36
4 -0.36
47 0.15
5 -0.57
51 0.5
6 -0.57

> <PUBCHEM_EFFECTIVE_ROTOR_COUNT>
12

> <PUBCHEM_PHARMACOPHORE_FEATURES>
9
1 1 acceptor
1 16 hydrophobe
1 2 acceptor
1 3 acceptor
1 4 acceptor
1 5 acceptor
1 6 acceptor
3 1 2 19 anion
6 18 20 21 22 23 24 rings

> <PUBCHEM_HEAVY_ATOM_COUNT>
27

> <PUBCHEM_ATOM_DEF_STEREO_COUNT>
0

> <PUBCHEM_ATOM_UDEF_STEREO_COUNT>
0

> <PUBCHEM_BOND_DEF_STEREO_COUNT>
1

> <PUBCHEM_BOND_UDEF_STEREO_COUNT>
0

> <PUBCHEM_ISOTOPIC_ATOM_COUNT>
0

> <PUBCHEM_COMPONENT_COUNT>
1

> <PUBCHEM_CACTVS_TAUTO_COUNT>
5

> <PUBCHEM_CONFORMER_ID>
006241E500000001

> <PUBCHEM_MMFF94_ENERGY>
76.4506

> <PUBCHEM_FEATURE_SELFOVERLAP>
45.748

> <PUBCHEM_SHAPE_FINGERPRINT>
10622 236 17608353654238884490
10693767 8 18336263457550428043
117089 54 18198069075308672047
12166972 35 18059575819708938753
12592606 108 18343021095723972951
13383661 66 17128468510536726886
13533116 47 18339919446331225897
13631057 29 18338805507670919140
13835254 42 18273210881225009921
14040221 304 17895485825170934718
14537116 161 18260820519641377999
14931854 50 17967821509165929662
15183329 4 18260829289948427827
17134984 74 18040714796602620659
17492 89 18122629349570513414
17909252 39 18410858724952166784
20554085 129 11386365971950707837
20721686 146 11891634442211177382
20775438 99 18193262207850133123
221357 26 18259700108428354961
23569914 2 14059294188172398358
255183 451 18409729591178166957
3004659 81 18113898225890415754
3472631 163 11242261744525714299
439807 62 18408324376483776263
445580 126 8574717884254375031
46194498 28 17458623466912848581
465052 167 18343864420498795255
70251023 43 18411420579409839768
7970288 3 18340765953650804063
9849439 229 9295281760059924825

> <PUBCHEM_SHAPE_MULTIPOLES>
520.43
21.74
4.28
1.49
71.68
2.4
-0.36
-24.96
8.9
-2.7
-0.12
-2.21
-0.18
-0.77

> <PUBCHEM_SHAPE_SELFOVERLAP>
1047.912

> <PUBCHEM_SHAPE_VOLUME>
304.2

> <PUBCHEM_COORDINATE_TYPE>
2
5
10

$$$$
