5099
  -OEChem-05302305103D

 42 43  0     1  0  0  0  0  0999 V2000
   -0.9537   -1.0744   -0.3219 O   0  0  0  0  0  0  0  0  0  0  0  0
   -2.5497   -4.1159    0.4111 O   0  0  0  0  0  0  0  0  0  0  0  0
   -3.3443    3.5947   -0.6787 O   0  0  0  0  0  0  0  0  0  0  0  0
   -5.5433    3.4716    1.0160 O   0  0  0  0  0  0  0  0  0  0  0  0
   -1.0901   -3.6574   -1.2659 O   0  0  0  0  0  0  0  0  0  0  0  0
    0.1821   -2.3985    1.1926 O   0  0  0  0  0  0  0  0  0  0  0  0
    7.3052   -0.2767    0.5685 O   0  0  0  0  0  0  0  0  0  0  0  0
    7.0535    2.2504   -0.5612 O   0  0  0  0  0  0  0  0  0  0  0  0
   -3.2541   -1.2745   -1.0035 C   0  0  0  0  0  0  0  0  0  0  0  0
   -2.1553   -1.8160   -0.0864 C   0  0  1  0  0  0  0  0  0  0  0  0
   -3.8645   -0.0027   -0.4648 C   0  0  0  0  0  0  0  0  0  0  0  0
   -3.3166    1.2182   -0.8244 C   0  0  0  0  0  0  0  0  0  0  0  0
   -4.9605   -0.0803    0.3794 C   0  0  0  0  0  0  0  0  0  0  0  0
   -1.8632   -3.2697   -0.3997 C   0  0  0  0  0  0  0  0  0  0  0  0
   -3.8800    2.3931   -0.3263 C   0  0  0  0  0  0  0  0  0  0  0  0
   -5.5238    1.0944    0.8774 C   0  0  0  0  0  0  0  0  0  0  0  0
   -4.9837    2.3311    0.5245 C   0  0  0  0  0  0  0  0  0  0  0  0
    0.1327   -1.4809    0.3890 C   0  0  0  0  0  0  0  0  0  0  0  0
    3.6712   -0.0069    0.2778 C   0  0  0  0  0  0  0  0  0  0  0  0
    1.2654   -0.6033    0.0162 C   0  0  0  0  0  0  0  0  0  0  0  0
    2.4836   -0.7937    0.5702 C   0  0  0  0  0  0  0  0  0  0  0  0
    4.9362   -0.5200    0.5645 C   0  0  0  0  0  0  0  0  0  0  0  0
    3.5451    1.2615   -0.2888 C   0  0  0  0  0  0  0  0  0  0  0  0
    6.0751    0.2354    0.2848 C   0  0  0  0  0  0  0  0  0  0  0  0
    4.6838    2.0169   -0.5685 C   0  0  0  0  0  0  0  0  0  0  0  0
    5.9488    1.5037   -0.2819 C   0  0  0  0  0  0  0  0  0  0  0  0
   -2.8577   -1.0884   -2.0107 H   0  0  0  0  0  0  0  0  0  0  0  0
   -4.0494   -2.0212   -1.1292 H   0  0  0  0  0  0  0  0  0  0  0  0
   -2.4252   -1.7172    0.9729 H   0  0  0  0  0  0  0  0  0  0  0  0
   -2.4561    1.2625   -1.4869 H   0  0  0  0  0  0  0  0  0  0  0  0
   -5.3864   -1.0389    0.6616 H   0  0  0  0  0  0  0  0  0  0  0  0
   -6.3831    1.0318    1.5397 H   0  0  0  0  0  0  0  0  0  0  0  0
    1.0686    0.1648   -0.7232 H   0  0  0  0  0  0  0  0  0  0  0  0
    2.6219   -1.5998    1.2876 H   0  0  0  0  0  0  0  0  0  0  0  0
    5.0478   -1.5084    1.0052 H   0  0  0  0  0  0  0  0  0  0  0  0
    2.5812    1.7099   -0.5105 H   0  0  0  0  0  0  0  0  0  0  0  0
    4.5715    3.0053   -1.0061 H   0  0  0  0  0  0  0  0  0  0  0  0
   -2.3515   -5.0554    0.2106 H   0  0  0  0  0  0  0  0  0  0  0  0
   -2.5880    3.4433   -1.2713 H   0  0  0  0  0  0  0  0  0  0  0  0
   -6.2955    3.2353    1.5855 H   0  0  0  0  0  0  0  0  0  0  0  0
    7.9763    0.3789    0.3105 H   0  0  0  0  0  0  0  0  0  0  0  0
    6.7736    3.0972   -0.9492 H   0  0  0  0  0  0  0  0  0  0  0  0
  1 10  1  0  0  0  0
  1 18  1  0  0  0  0
  2 14  1  0  0  0  0
  2 38  1  0  0  0  0
  3 15  1  0  0  0  0
  3 39  1  0  0  0  0
  4 17  1  0  0  0  0
  4 40  1  0  0  0  0
  5 14  2  0  0  0  0
  6 18  2  0  0  0  0
  7 24  1  0  0  0  0
  7 41  1  0  0  0  0
  8 26  1  0  0  0  0
  8 42  1  0  0  0  0
  9 10  1  0  0  0  0
  9 11  1  0  0  0  0
  9 27  1  0  0  0  0
  9 28  1  0  0  0  0
 10 14  1  0  0  0  0
 10 29  1  0  0  0  0
 11 12  2  0  0  0  0
 11 13  1  0  0  0  0
 12 15  1  0  0  0  0
 12 30  1  0  0  0  0
 13 16  2  0  0  0  0
 13 31  1  0  0  0  0
 15 17  2  0  0  0  0
 16 17  1  0  0  0  0
 16 32  1  0  0  0  0
 18 20  1  0  0  0  0
 19 21  1  0  0  0  0
 19 22  2  0  0  0  0
 19 23  1  0  0  0  0
 20 21  2  3  0  0  0
 20 33  1  0  0  0  0
 21 34  1  0  0  0  0
 22 24  1  0  0  0  0
 22 35  1  0  0  0  0
 23 25  2  0  0  0  0
 23 36  1  0  0  0  0
 24 26  2  0  0  0  0
 25 26  1  0  0  0  0
 25 37  1  0  0  0  0
M  END
> <PUBCHEM_COMPOUND_CID>
5099

> <PUBCHEM_CONFORMER_RMSD>
1

> <PUBCHEM_CONFORMER_DIVERSEORDER>
1
152
14
41
83
264
235
240
129
132
244
171
39
183
120
75
86
196
263
226
9
101
201
136
182
237
84
37
57
251
200
4
42
166
228
186
215
40
135
261
290
207
211
146
270
294
106
88
245
254
125
153
69
297
192
51
232
271
13
29
124
160
79
72
277
170
274
90
286
85
260
202
34
105
252
109
150
78
8
280
3
149
76
225
33
131
281
126
99
169
55
81
191
20
262
46
246
64
32
165
77
190
238
154
35
142
268
288
167
188
258
63
36
95
148
38
144
44
205
230
217
128
219
241
49
23
158
295
56
82
118
80
161
24
133
121
259
140
216
66
212
31
117
91
2
210
96
10
222
12
127
292
194
102
62
213
114
247
16
108
107
283
27
209
19
203
256
89
197
58
122
43
113
93
224
276
97
112
296
21
11
74
70
298
176
204
178
48
92
104
22
273
47
134
293
279
278
275
193
30
257
25
61
199
285
139
220
5
163
185
130
71
180
172
243
208
67
52
143
265
137
147
18
282
250
15
73
28
151
227
174
141
249
229
17
267
289
26
223
179
242
59
221
175
189
181
6
45
248
162
138
123
234
269
119
236
173
284
218
94
272
115
7
164
184
214
50
291
157
100
98
155
231
287
60
159
187
65
103
111
53
198
195
145
54
255
168
206
68
253
116
110
87
156
266
239
177
233

> <PUBCHEM_MMFF94_PARTIAL_CHARGES>
39
1 -0.43
10 0.34
11 -0.14
12 -0.15
13 -0.15
14 0.66
15 0.08
16 -0.15
17 0.08
18 0.71
19 0.03
2 -0.65
20 -0.14
21 -0.18
22 -0.15
23 -0.15
24 0.08
25 -0.15
26 0.08
3 -0.53
30 0.15
31 0.15
32 0.15
33 0.15
34 0.15
35 0.15
36 0.15
37 0.15
38 0.5
39 0.45
4 -0.53
40 0.45
41 0.45
42 0.45
5 -0.57
6 -0.57
7 -0.53
8 -0.53
9 0.14

> <PUBCHEM_EFFECTIVE_ROTOR_COUNT>
7

> <PUBCHEM_PHARMACOPHORE_FEATURES>
10
1 2 acceptor
1 3 donor
1 4 donor
1 5 acceptor
1 6 acceptor
1 7 donor
1 8 donor
3 2 5 14 anion
6 11 12 13 15 16 17 rings
6 19 22 23 24 25 26 rings

> <PUBCHEM_HEAVY_ATOM_COUNT>
26

> <PUBCHEM_ATOM_DEF_STEREO_COUNT>
0

> <PUBCHEM_ATOM_UDEF_STEREO_COUNT>
1

> <PUBCHEM_BOND_DEF_STEREO_COUNT>
0

> <PUBCHEM_BOND_UDEF_STEREO_COUNT>
1

> <PUBCHEM_ISOTOPIC_ATOM_COUNT>
0

> <PUBCHEM_COMPONENT_COUNT>
1

> <PUBCHEM_CACTVS_TAUTO_COUNT>
180

> <PUBCHEM_CONFORMER_ID>
000013EB00000001

> <PUBCHEM_MMFF94_ENERGY>
65.2666

> <PUBCHEM_FEATURE_SELFOVERLAP>
50.814

> <PUBCHEM_SHAPE_FINGERPRINT>
100830 39 18408321107633459376
10165383 225 18131636660842206787
10411042 1 17762618791382507823
10595046 47 18191019209173192078
10670039 82 18412254047709269489
12107183 9 18263070025731842802
12390115 104 18343028757344157849
13167372 99 18408884040918747048
13177829 73 18409726257950709328
13785724 45 17760078520148370650
14251757 5 18342738550224505937
14251764 75 18126574414486998761
14257110 125 18410290286035867413
14347329 18 18341606014719557944
14713325 29 18337674234375432611
14790565 3 18337107848014709240
15064981 194 18044383948514000471
15163728 17 18129952178336000111
15183329 4 18261101990138277566
15289351 153 18050279569620380884
15338160 23 18336273435381604587
15604295 49 18127969927219798952
15876981 60 18192149519615751271
16126227 98 18342179964427401217
17844677 252 18263928920306164910
18393751 57 18261683588977010931
19611394 137 17970080027057527051
20101258 96 17905332071766997971
20691028 202 18412822460893487169
21365058 113 16762553119998310903
21756936 100 18342168964836664911
23569943 247 16445001203974995890
25019877 29 18059303140756964863
2838139 119 18272927237146505588
3610482 184 18115038523091968734
397830 11 11025793258820368286
4015057 19 12966837001024526242
4073 2 18041562563782330042
4197921 191 18188206602246275348
50677037 204 18190170377127145164
5104073 3 17968366970734799682
5283173 99 18341610469011983224
59755656 520 17385443228500449930
6126387 218 18201714030497275898
6299153 45 18336542695518623098
6327066 14 18337666409297862725
636775 72 18196086862708908984
6700243 42 17480338928724786334
7226269 152 18059856147138265928
7808743 9 18411134744972433435

> <PUBCHEM_SHAPE_MULTIPOLES>
488.11
17.53
4.34
0.95
22.61
1.43
0.01
-14.67
-1.74
-6.14
0.36
-0.48
0.08
-1.71

> <PUBCHEM_SHAPE_SELFOVERLAP>
1046.858

> <PUBCHEM_SHAPE_VOLUME>
267.8

> <PUBCHEM_COORDINATE_TYPE>
2
5
10

$$$$
