44258292
  -OEChem-05302304153D

 60 62  0     0  0  0  0  0  0999 V2000
   -0.4639    1.1718    0.0000 O   0  0  0  0  0  0  0  0  0  0  0  0
    4.1889    2.0546   -0.1352 O   0  0  0  0  0  0  0  0  0  0  0  0
    2.7018   -2.2432    1.3016 O   0  0  0  0  0  0  0  0  0  0  0  0
    0.1488   -2.6237    1.3372 O   0  0  0  0  0  0  0  0  0  0  0  0
   -2.9795    1.7935    2.2293 O   0  0  0  0  0  0  0  0  0  0  0  0
   -6.4752    2.7355   -0.8632 O   0  0  0  0  0  0  0  0  0  0  0  0
    1.0789   -0.5741    0.6628 C   0  0  0  0  0  0  0  0  0  0  0  0
   -1.4171   -0.9454    0.7059 C   0  0  0  0  0  0  0  0  0  0  0  0
    0.8088    0.7120    0.2066 C   0  0  0  0  0  0  0  0  0  0  0  0
    3.4465   -0.1078    0.5875 C   0  0  0  0  0  0  0  0  0  0  0  0
   -1.5250    0.3207    0.2551 C   0  0  0  0  0  0  0  0  0  0  0  0
   -0.0448   -1.4823    0.9377 C   0  0  0  0  0  0  0  0  0  0  0  0
    2.3992   -0.9902    0.8554 C   0  0  0  0  0  0  0  0  0  0  0  0
   -2.5457   -1.8861    1.0162 C   0  0  0  0  0  0  0  0  0  0  0  0
    3.1760    1.1821    0.1298 C   0  0  0  0  0  0  0  0  0  0  0  0
    1.8569    1.5935   -0.0611 C   0  0  0  0  0  0  0  0  0  0  0  0
    4.8640   -0.5408    0.7897 C   0  0  0  0  0  0  0  0  0  0  0  0
   -2.8202    0.9584   -0.0188 C   0  0  0  0  0  0  0  0  0  0  0  0
   -2.7753   -2.8620   -0.0958 C   0  0  0  0  0  0  0  0  0  0  0  0
    5.5757   -0.8335   -0.5066 C   0  0  0  0  0  0  0  0  0  0  0  0
   -3.4963    1.6683    0.9735 C   0  0  0  0  0  0  0  0  0  0  0  0
   -3.3723    0.8459   -1.2949 C   0  0  0  0  0  0  0  0  0  0  0  0
   -3.8782   -3.0021   -0.8561 C   0  0  0  0  0  0  0  0  0  0  0  0
    6.6973   -0.2617   -0.9849 C   0  0  0  0  0  0  0  0  0  0  0  0
   -4.7247    2.2653    0.6898 C   0  0  0  0  0  0  0  0  0  0  0  0
   -4.6007    1.4427   -1.5785 C   0  0  0  0  0  0  0  0  0  0  0  0
   -5.2769    2.1525   -0.5861 C   0  0  0  0  0  0  0  0  0  0  0  0
   -4.0464   -4.0057   -1.9615 C   0  0  0  0  0  0  0  0  0  0  0  0
   -5.0706   -2.1081   -0.6418 C   0  0  0  0  0  0  0  0  0  0  0  0
    3.8207    3.3520   -0.5990 C   0  0  0  0  0  0  0  0  0  0  0  0
    7.3561   -0.6031   -2.2913 C   0  0  0  0  0  0  0  0  0  0  0  0
    7.3932    0.8209   -0.2033 C   0  0  0  0  0  0  0  0  0  0  0  0
   -2.3008   -2.4612    1.9196 H   0  0  0  0  0  0  0  0  0  0  0  0
   -3.4365   -1.3327    1.3144 H   0  0  0  0  0  0  0  0  0  0  0  0
    1.5785    2.5809   -0.4139 H   0  0  0  0  0  0  0  0  0  0  0  0
    5.3658    0.2006    1.4164 H   0  0  0  0  0  0  0  0  0  0  0  0
    4.9171   -1.4548    1.3942 H   0  0  0  0  0  0  0  0  0  0  0  0
   -1.9485   -3.5431   -0.2955 H   0  0  0  0  0  0  0  0  0  0  0  0
    5.1191   -1.6171   -1.1111 H   0  0  0  0  0  0  0  0  0  0  0  0
   -2.8583    0.2963   -2.0799 H   0  0  0  0  0  0  0  0  0  0  0  0
    1.8969   -2.7615    1.4500 H   0  0  0  0  0  0  0  0  0  0  0  0
   -5.2533    2.8189    1.4621 H   0  0  0  0  0  0  0  0  0  0  0  0
   -5.0261    1.3506   -2.5741 H   0  0  0  0  0  0  0  0  0  0  0  0
   -4.8936   -4.6664   -1.7516 H   0  0  0  0  0  0  0  0  0  0  0  0
   -3.1549   -4.6307   -2.0770 H   0  0  0  0  0  0  0  0  0  0  0  0
   -4.2248   -3.4980   -2.9147 H   0  0  0  0  0  0  0  0  0  0  0  0
   -5.3294   -1.6103   -1.5829 H   0  0  0  0  0  0  0  0  0  0  0  0
   -5.9314   -2.7180   -0.3446 H   0  0  0  0  0  0  0  0  0  0  0  0
   -4.9653   -1.3289    0.1097 H   0  0  0  0  0  0  0  0  0  0  0  0
    4.7489    3.9107   -0.7591 H   0  0  0  0  0  0  0  0  0  0  0  0
    3.2457    3.9025    0.1534 H   0  0  0  0  0  0  0  0  0  0  0  0
    3.3090    3.3053   -1.5663 H   0  0  0  0  0  0  0  0  0  0  0  0
    6.8223   -1.4037   -2.8138 H   0  0  0  0  0  0  0  0  0  0  0  0
    7.3763    0.2708   -2.9501 H   0  0  0  0  0  0  0  0  0  0  0  0
    8.3838   -0.9405   -2.1233 H   0  0  0  0  0  0  0  0  0  0  0  0
    7.6557    1.6477   -0.8738 H   0  0  0  0  0  0  0  0  0  0  0  0
    6.8125    1.2689    0.6023 H   0  0  0  0  0  0  0  0  0  0  0  0
    8.3222    0.4297    0.2250 H   0  0  0  0  0  0  0  0  0  0  0  0
   -3.5907    2.3168    2.7755 H   0  0  0  0  0  0  0  0  0  0  0  0
   -6.8007    3.1836   -0.0636 H   0  0  0  0  0  0  0  0  0  0  0  0
  1  9  1  0  0  0  0
  1 11  1  0  0  0  0
  2 15  1  0  0  0  0
  2 30  1  0  0  0  0
  3 13  1  0  0  0  0
  3 41  1  0  0  0  0
  4 12  2  0  0  0  0
  5 21  1  0  0  0  0
  5 59  1  0  0  0  0
  6 27  1  0  0  0  0
  6 60  1  0  0  0  0
  7  9  1  0  0  0  0
  7 12  1  0  0  0  0
  7 13  2  0  0  0  0
  8 11  2  0  0  0  0
  8 12  1  0  0  0  0
  8 14  1  0  0  0  0
  9 16  2  0  0  0  0
 10 13  1  0  0  0  0
 10 15  2  0  0  0  0
 10 17  1  0  0  0  0
 11 18  1  0  0  0  0
 14 19  1  0  0  0  0
 14 33  1  0  0  0  0
 14 34  1  0  0  0  0
 15 16  1  0  0  0  0
 16 35  1  0  0  0  0
 17 20  1  0  0  0  0
 17 36  1  0  0  0  0
 17 37  1  0  0  0  0
 18 21  2  0  0  0  0
 18 22  1  0  0  0  0
 19 23  2  0  0  0  0
 19 38  1  0  0  0  0
 20 24  2  0  0  0  0
 20 39  1  0  0  0  0
 21 25  1  0  0  0  0
 22 26  2  0  0  0  0
 22 40  1  0  0  0  0
 23 28  1  0  0  0  0
 23 29  1  0  0  0  0
 24 31  1  0  0  0  0
 24 32  1  0  0  0  0
 25 27  2  0  0  0  0
 25 42  1  0  0  0  0
 26 27  1  0  0  0  0
 26 43  1  0  0  0  0
 28 44  1  0  0  0  0
 28 45  1  0  0  0  0
 28 46  1  0  0  0  0
 29 47  1  0  0  0  0
 29 48  1  0  0  0  0
 29 49  1  0  0  0  0
 30 50  1  0  0  0  0
 30 51  1  0  0  0  0
 30 52  1  0  0  0  0
 31 53  1  0  0  0  0
 31 54  1  0  0  0  0
 31 55  1  0  0  0  0
 32 56  1  0  0  0  0
 32 57  1  0  0  0  0
 32 58  1  0  0  0  0
M  END
> <PUBCHEM_COMPOUND_CID>
44258292

> <PUBCHEM_CONFORMER_RMSD>
0.8

> <PUBCHEM_CONFORMER_DIVERSEORDER>
10
66
175
148
107
162
75
106
176
38
133
142
171
82
80
109
22
173
33
83
45
92
158
147
139
143
177
25
34
121
145
104
101
131
87
23
54
29
81
146
93
65
167
64
44
151
165
90
99
39
84
136
181
182
97
95
27
137
115
140
172
103
89
16
59
164
154
126
37
36
130
78
153
12
141
20
32
113
26
180
71
41
76
134
105
30
73
174
58
110
161
169
57
85
6
88
46
166
120
170
28
11
157
112
40
178
24
86
91
51
111
129
70
163
152
9
31
96
43
7
108
98
119
117
77
127
68
168
55
72
67
13
183
128
118
114
35
122
159
156
135
49
132
102
1
124
52
123
61
47
60
15
150
63
179
53
116
184
56
94
48
50
155
144
149
125
5
79
42
100
18
138
21
4
160
62
69
3
19
17
74
2
14
8

> <PUBCHEM_MMFF94_PARTIAL_CHARGES>
41
1 -0.16
10 -0.14
11 0.05
12 0.47
13 0.08
14 0.28
15 0.08
16 -0.15
17 0.28
18 0.03
19 -0.29
2 -0.36
20 -0.29
21 0.08
22 -0.15
23 -0.28
24 -0.28
25 -0.15
26 -0.15
27 0.08
28 0.14
29 0.14
3 -0.53
30 0.28
31 0.14
32 0.14
35 0.15
38 0.15
39 0.15
4 -0.57
40 0.15
41 0.45
42 0.15
43 0.15
5 -0.53
59 0.45
6 -0.53
60 0.45
7 0.09
8 -0.12
9 0.08

> <PUBCHEM_EFFECTIVE_ROTOR_COUNT>
6

> <PUBCHEM_PHARMACOPHORE_FEATURES>
11
1 1 acceptor
1 2 acceptor
1 3 donor
1 4 acceptor
1 5 donor
1 6 donor
3 23 28 29 hydrophobe
3 24 31 32 hydrophobe
6 1 7 8 9 11 12 rings
6 18 21 22 25 26 27 rings
6 7 9 10 13 15 16 rings

> <PUBCHEM_HEAVY_ATOM_COUNT>
32

> <PUBCHEM_ATOM_DEF_STEREO_COUNT>
0

> <PUBCHEM_ATOM_UDEF_STEREO_COUNT>
0

> <PUBCHEM_BOND_DEF_STEREO_COUNT>
0

> <PUBCHEM_BOND_UDEF_STEREO_COUNT>
0

> <PUBCHEM_ISOTOPIC_ATOM_COUNT>
0

> <PUBCHEM_COMPONENT_COUNT>
1

> <PUBCHEM_CACTVS_TAUTO_COUNT>
72

> <PUBCHEM_CONFORMER_ID>
02A353F40000000A

> <PUBCHEM_MMFF94_ENERGY>
93.823

> <PUBCHEM_FEATURE_SELFOVERLAP>
55.849

> <PUBCHEM_SHAPE_FINGERPRINT>
10554248 39 17022613162217003538
11578080 2 17701515520095699195
12107698 1 18341049735056413150
12120059 9 17774999043746111878
12954195 1 18342455963294402815
13140716 1 18187364320088086713
13583140 156 17676494904270586497
13782708 43 17060059276726107974
14347332 77 18270964668883538606
15064981 194 18340217344904426861
15183329 4 18339929217154743420
15361156 5 18261969509065550956
15439362 3 17912653401804916069
1577012 14 17749113292963883806
17980427 26 16228555644250680067
18603816 31 17059477531895229030
21033648 144 18339065056185813492
21236236 1 18408322215545228323
21307412 95 18057904463145243006
21709351 56 18408324414974366862
21756936 100 17845667945422265521
21792965 68 14057265477517813734
22393880 68 18410288142572886542
23559900 14 18342172289426487728
23569914 2 13770723062305591726
23576562 1 18260554453994853077
25147074 1 18187070733493992626
283562 15 18118396491748997915
335352 9 18261955159558475124
350125 39 18334016111970821563
5104073 3 18187358870260229432
59755656 520 18411983521042039681
6086070 43 18272092738387390320

> <PUBCHEM_SHAPE_MULTIPOLES>
623.33
16.74
3.9
1.56
20.14
1.41
0.31
-3.27
8.38
-6.16
0.92
-0.14
0.47
-1.05

> <PUBCHEM_SHAPE_SELFOVERLAP>
1341.963

> <PUBCHEM_SHAPE_VOLUME>
343.9

> <PUBCHEM_COORDINATE_TYPE>
2
5
10

$$$$
